data_ADFinput
_cell_length_a    6.04486
_cell_length_b    6.04486
_cell_length_c    6.04486
_cell_angle_alpha  109.47122
_cell_angle_beta  109.47122
_cell_angle_gamma  109.47122
loop_
_atom_site_type_symbol
_atom_site_fract_x
_atom_site_fract_y
_atom_site_fract_z
Li 0.25 0.25 0.25
Li -0.25 -0.25 -0.25
Li -0.25 -0.25 0.25
Li -0.25 0.25 -0.25
Li -0.25 0.25 0.25
Li 0.25 -0.25 -0.25
Li 0.25 -0.25 0.25
Li 0.25 0.25 -0.25
